LTspice 26.0.1 for Windows
Circuit: C:\Users\Harry\Downloads\UCC5390ECD_TRANS.LIB
Start Time: Sat Mar 28 14:07:42 2026
No analysis specified.